!-Generator IDFEditor 1.53
!-Option SortedOrder

!-NOTE: All comments with '!-' are ignored by the IDFEditor and are generated automatically.
!-      Use '!' comments if they need to be retained when using the IDFEditor.


!-   ===========  ALL OBJECTS IN CLASS: VERSION ===========

Version,
    22.2;                    !- Version Identifier


!-   ===========  ALL OBJECTS IN CLASS: SIMULATIONCONTROL ===========

SimulationControl,
    Yes,                     !- Do Zone Sizing Calculation
    Yes,                     !- Do System Sizing Calculation
    Yes,                     !- Do Plant Sizing Calculation
    No,                      !- Run Simulation for Sizing Periods
    Yes,                     !- Run Simulation for Weather File Run Periods
    Yes,                     !- Do HVAC Sizing Simulation for Sizing Periods
    1;                       !- Maximum Number of HVAC Sizing Simulation Passes


!-   ===========  ALL OBJECTS IN CLASS: BUILDING ===========

Building,
    -LargeOffice-ASHRAE 169-2013-2A created: 2023-01-18 17:07:04 -0800,  !- Name
    0,                       !- North Axis {deg}
    City,                    !- Terrain
    0.04,                    !- Loads Convergence Tolerance Value {W}
    0.2,                     !- Temperature Convergence Tolerance Value {deltaC}
    FullInteriorAndExterior, !- Solar Distribution
    25,                      !- Maximum Number of Warmup Days
    6;                       !- Minimum Number of Warmup Days


!-   ===========  ALL OBJECTS IN CLASS: SURFACECONVECTIONALGORITHM:INSIDE ===========

SurfaceConvectionAlgorithm:Inside,
    TARP;                    !- Algorithm


!-   ===========  ALL OBJECTS IN CLASS: SURFACECONVECTIONALGORITHM:OUTSIDE ===========

SurfaceConvectionAlgorithm:Outside,
    TARP;                    !- Algorithm


!-   ===========  ALL OBJECTS IN CLASS: TIMESTEP ===========

Timestep,
    6;                       !- Number of Timesteps per Hour


!-   ===========  ALL OBJECTS IN CLASS: CONVERGENCELIMITS ===========

ConvergenceLimits,
    1,                       !- Minimum System Timestep {minutes}
    20;                      !- Maximum HVAC Iterations


!-   ===========  ALL OBJECTS IN CLASS: SITE:LOCATION ===========

Site:Location,
    Tampa-MacDill AFB_FL_USA,!- Name
    27.85,                   !- Latitude {deg}
    -82.52,                  !- Longitude {deg}
    -5,                      !- Time Zone {hr}
    8;                       !- Elevation {m}


!-   ===========  ALL OBJECTS IN CLASS: SIZINGPERIOD:DESIGNDAY ===========

SizingPeriod:DesignDay,
    Tampa-MacDill.AFB_FL_USA Ann Clg .4% Condns DB=>MWB,  !- Name
    8,                       !- Month
    21,                      !- Day of Month
    SummerDesignDay,         !- Day Type
    33.9,                    !- Maximum Dry-Bulb Temperature {C}
    7.9,                     !- Daily Dry-Bulb Temperature Range {deltaC}
    DefaultMultipliers,      !- Dry-Bulb Temperature Range Modifier Type
    ,                        !- Dry-Bulb Temperature Range Modifier Day Schedule Name
    Wetbulb,                 !- Humidity Condition Type
    25.1,                    !- Wetbulb or DewPoint at Maximum Dry-Bulb {C}
    ,                        !- Humidity Condition Day Schedule Name
    ,                        !- Humidity Ratio at Maximum Dry-Bulb {kgWater/kgDryAir}
    ,                        !- Enthalpy at Maximum Dry-Bulb {J/kg}
    ,                        !- Daily Wet-Bulb Temperature Range {deltaC}
    101229,                  !- Barometric Pressure {Pa}
    3.1,                     !- Wind Speed {m/s}
    270,                     !- Wind Direction {deg}
    No,                      !- Rain Indicator
    No,                      !- Snow Indicator
    No,                      !- Daylight Saving Time Indicator
    ASHRAETau,               !- Solar Model Indicator
    ,                        !- Beam Solar Day Schedule Name
    ,                        !- Diffuse Solar Day Schedule Name
    0.491,                   !- ASHRAE Clear Sky Optical Depth for Beam Irradiance (taub) {dimensionless}
    2.016,                   !- ASHRAE Clear Sky Optical Depth for Diffuse Irradiance (taud) {dimensionless}
    ,                        !- Sky Clearness
    ,                        !- Maximum Number Warmup Days
    FullResetAtBeginEnvironment;  !- Begin Environment Reset Mode

SizingPeriod:DesignDay,
    Tampa-MacDill.AFB_FL_USA Ann Htg 99.6% Condns DB,  !- Name
    1,                       !- Month
    21,                      !- Day of Month
    WinterDesignDay,         !- Day Type
    4.6,                     !- Maximum Dry-Bulb Temperature {C}
    0,                       !- Daily Dry-Bulb Temperature Range {deltaC}
    DefaultMultipliers,      !- Dry-Bulb Temperature Range Modifier Type
    ,                        !- Dry-Bulb Temperature Range Modifier Day Schedule Name
    Wetbulb,                 !- Humidity Condition Type
    4.6,                     !- Wetbulb or DewPoint at Maximum Dry-Bulb {C}
    ,                        !- Humidity Condition Day Schedule Name
    ,                        !- Humidity Ratio at Maximum Dry-Bulb {kgWater/kgDryAir}
    ,                        !- Enthalpy at Maximum Dry-Bulb {J/kg}
    ,                        !- Daily Wet-Bulb Temperature Range {deltaC}
    101229,                  !- Barometric Pressure {Pa}
    2.5,                     !- Wind Speed {m/s}
    10,                      !- Wind Direction {deg}
    No,                      !- Rain Indicator
    No,                      !- Snow Indicator
    No,                      !- Daylight Saving Time Indicator
    ASHRAEClearSky,          !- Solar Model Indicator
    ,                        !- Beam Solar Day Schedule Name
    ,                        !- Diffuse Solar Day Schedule Name
    ,                        !- ASHRAE Clear Sky Optical Depth for Beam Irradiance (taub) {dimensionless}
    ,                        !- ASHRAE Clear Sky Optical Depth for Diffuse Irradiance (taud) {dimensionless}
    0,                       !- Sky Clearness
    ,                        !- Maximum Number Warmup Days
    FullResetAtBeginEnvironment;  !- Begin Environment Reset Mode


!-   ===========  ALL OBJECTS IN CLASS: RUNPERIOD ===========

RunPeriod,
    Run Period 1,            !- Name
    1,                       !- Begin Month
    1,                       !- Begin Day of Month
    2006,                    !- Begin Year
    12,                      !- End Month
    31,                      !- End Day of Month
    2006,                    !- End Year
    Sunday,                  !- Day of Week for Start Day
    No,                      !- Use Weather File Holidays and Special Days
    No,                      !- Use Weather File Daylight Saving Period
    No,                      !- Apply Weekend Holiday Rule
    Yes,                     !- Use Weather File Rain Indicators
    Yes;                     !- Use Weather File Snow Indicators


!-   ===========  ALL OBJECTS IN CLASS: RUNPERIODCONTROL:DAYLIGHTSAVINGTIME ===========

RunPeriodControl:DaylightSavingTime,
    2nd Sunday in March,     !- Start Date
    1st Sunday in November;  !- End Date


!-   ===========  ALL OBJECTS IN CLASS: SITE:GROUNDTEMPERATURE:FCFACTORMETHOD ===========

Site:GroundTemperature:FCfactorMethod,
    24.2,                    !- January Ground Temperature {C}
    18.9,                    !- February Ground Temperature {C}
    15.7,                    !- March Ground Temperature {C}
    13.6,                    !- April Ground Temperature {C}
    15.5,                    !- May Ground Temperature {C}
    17.1,                    !- June Ground Temperature {C}
    21.2,                    !- July Ground Temperature {C}
    26.9,                    !- August Ground Temperature {C}
    27.6,                    !- September Ground Temperature {C}
    27.9,                    !- October Ground Temperature {C}
    27.4,                    !- November Ground Temperature {C}
    26.2;                    !- December Ground Temperature {C}


!-   ===========  ALL OBJECTS IN CLASS: SITE:WATERMAINSTEMPERATURE ===========

Site:WaterMainsTemperature,
    Correlation,             !- Calculation Method
    ,                        !- Temperature Schedule Name
    21.85,                   !- Annual Average Outdoor Air Temperature {C}
    14.3;                    !- Maximum Difference In Monthly Average Outdoor Air Temperatures {deltaC}


!-   ===========  ALL OBJECTS IN CLASS: SCHEDULETYPELIMITS ===========

ScheduleTypeLimits,
    Basement ZN Thermostat Schedule Type Limits,  !- Name
    0,                       !- Lower Limit Value
    4,                       !- Upper Limit Value
    DISCRETE;                !- Numeric Type

ScheduleTypeLimits,
    Temperature,             !- Name
    ,                        !- Lower Limit Value
    ,                        !- Upper Limit Value
    Continuous,              !- Numeric Type
    temperature;             !- Unit Type

ScheduleTypeLimits,
    Core_bottom ZN Thermostat Schedule Type Limits,  !- Name
    0,                       !- Lower Limit Value
    4,                       !- Upper Limit Value
    DISCRETE;                !- Numeric Type

ScheduleTypeLimits,
    Core_mid ZN Thermostat Schedule Type Limits,  !- Name
    0,                       !- Lower Limit Value
    4,                       !- Upper Limit Value
    DISCRETE;                !- Numeric Type

ScheduleTypeLimits,
    Core_top ZN Thermostat Schedule Type Limits,  !- Name
    0,                       !- Lower Limit Value
    4,                       !- Upper Limit Value
    DISCRETE;                !- Numeric Type

ScheduleTypeLimits,
    DataCenter_basement_ZN_6 ZN Thermostat Schedule Type Limits,  !- Name
    0,                       !- Lower Limit Value
    4,                       !- Upper Limit Value
    DISCRETE;                !- Numeric Type

ScheduleTypeLimits,
    DataCenter_bot_ZN_6 ZN Thermostat Schedule Type Limits,  !- Name
    0,                       !- Lower Limit Value
    4,                       !- Upper Limit Value
    DISCRETE;                !- Numeric Type

ScheduleTypeLimits,
    DataCenter_mid_ZN_6 ZN Thermostat Schedule Type Limits,  !- Name
    0,                       !- Lower Limit Value
    4,                       !- Upper Limit Value
    DISCRETE;                !- Numeric Type

ScheduleTypeLimits,
    DataCenter_top_ZN_6 ZN Thermostat Schedule Type Limits,  !- Name
    0,                       !- Lower Limit Value
    4,                       !- Upper Limit Value
    DISCRETE;                !- Numeric Type

ScheduleTypeLimits,
    Perimeter_bot_ZN_1 ZN Thermostat Schedule Type Limits,  !- Name
    0,                       !- Lower Limit Value
    4,                       !- Upper Limit Value
    DISCRETE;                !- Numeric Type

ScheduleTypeLimits,
    Perimeter_bot_ZN_2 ZN Thermostat Schedule Type Limits,  !- Name
    0,                       !- Lower Limit Value
    4,                       !- Upper Limit Value
    DISCRETE;                !- Numeric Type

ScheduleTypeLimits,
    Perimeter_bot_ZN_3 ZN Thermostat Schedule Type Limits,  !- Name
    0,                       !- Lower Limit Value
    4,                       !- Upper Limit Value
    DISCRETE;                !- Numeric Type

ScheduleTypeLimits,
    Perimeter_bot_ZN_4 ZN Thermostat Schedule Type Limits,  !- Name
    0,                       !- Lower Limit Value
    4,                       !- Upper Limit Value
    DISCRETE;                !- Numeric Type

ScheduleTypeLimits,
    Perimeter_mid_ZN_1 ZN Thermostat Schedule Type Limits,  !- Name
    0,                       !- Lower Limit Value
    4,                       !- Upper Limit Value
    DISCRETE;                !- Numeric Type

ScheduleTypeLimits,
    Perimeter_mid_ZN_2 ZN Thermostat Schedule Type Limits,  !- Name
    0,                       !- Lower Limit Value
    4,                       !- Upper Limit Value
    DISCRETE;                !- Numeric Type

ScheduleTypeLimits,
    Perimeter_mid_ZN_3 ZN Thermostat Schedule Type Limits,  !- Name
    0,                       !- Lower Limit Value
    4,                       !- Upper Limit Value
    DISCRETE;                !- Numeric Type

ScheduleTypeLimits,
    Perimeter_mid_ZN_4 ZN Thermostat Schedule Type Limits,  !- Name
    0,                       !- Lower Limit Value
    4,                       !- Upper Limit Value
    DISCRETE;                !- Numeric Type

ScheduleTypeLimits,
    Perimeter_top_ZN_1 ZN Thermostat Schedule Type Limits,  !- Name
    0,                       !- Lower Limit Value
    4,                       !- Upper Limit Value
    DISCRETE;                !- Numeric Type

ScheduleTypeLimits,
    Perimeter_top_ZN_2 ZN Thermostat Schedule Type Limits,  !- Name
    0,                       !- Lower Limit Value
    4,                       !- Upper Limit Value
    DISCRETE;                !- Numeric Type

ScheduleTypeLimits,
    Perimeter_top_ZN_3 ZN Thermostat Schedule Type Limits,  !- Name
    0,                       !- Lower Limit Value
    4,                       !- Upper Limit Value
    DISCRETE;                !- Numeric Type

ScheduleTypeLimits,
    Perimeter_top_ZN_4 ZN Thermostat Schedule Type Limits,  !- Name
    0,                       !- Lower Limit Value
    4,                       !- Upper Limit Value
    DISCRETE;                !- Numeric Type

ScheduleTypeLimits,
    ActivityLevel,           !- Name
    0,                       !- Lower Limit Value
    ,                        !- Upper Limit Value
    Continuous,              !- Numeric Type
    activitylevel;           !- Unit Type

ScheduleTypeLimits,
    Always On Discrete Limits,  !- Name
    0,                       !- Lower Limit Value
    1,                       !- Upper Limit Value
    Discrete,                !- Numeric Type
    availability;            !- Unit Type

ScheduleTypeLimits,
    Any Number;              !- Name

ScheduleTypeLimits,
    Fractional,              !- Name
    0,                       !- Lower Limit Value
    1,                       !- Upper Limit Value
    Continuous;              !- Numeric Type

ScheduleTypeLimits,
    OnOff,                   !- Name
    0,                       !- Lower Limit Value
    1,                       !- Upper Limit Value
    Discrete,                !- Numeric Type
    availability;            !- Unit Type

ScheduleTypeLimits,
    Temperature Schedule Type Limits,  !- Name
    0,                       !- Lower Limit Value
    100,                     !- Upper Limit Value
    Continuous,              !- Numeric Type
    temperature;             !- Unit Type

ScheduleTypeLimits,
    Velocity,                !- Name
    0,                       !- Lower Limit Value
    ,                        !- Upper Limit Value
    Continuous,              !- Numeric Type
    velocity;                !- Unit Type


!-   ===========  ALL OBJECTS IN CLASS: SCHEDULE:DAY:INTERVAL ===========

Schedule:Day:Interval,
    OfficeLarge HTGSETP_SCH_YES_OPTIMUM Default,  !- Name
    Temperature,             !- Schedule Type Limits Name
    No,                      !- Interpolate to Timestep
    24:00,                   !- Time 1 {hh:mm}
    15.6;                    !- Value Until Time 1

Schedule:Day:Interval,
    OfficeLarge HTGSETP_SCH_YES_OPTIMUM Wkdy Day,  !- Name
    Temperature,             !- Schedule Type Limits Name
    No,                      !- Interpolate to Timestep
    04:00,                   !- Time 1 {hh:mm}
    15.6,                    !- Value Until Time 1
    05:00,                   !- Time 2 {hh:mm}
    17.8,                    !- Value Until Time 2
    06:00,                   !- Time 3 {hh:mm}
    20,                      !- Value Until Time 3
    22:00,                   !- Time 4 {hh:mm}
    21,                      !- Value Until Time 4
    24:00,                   !- Time 5 {hh:mm}
    15.6;                    !- Value Until Time 5

Schedule:Day:Interval,
    OfficeLarge HTGSETP_SCH_YES_OPTIMUM Sat Day,  !- Name
    Temperature,             !- Schedule Type Limits Name
    No,                      !- Interpolate to Timestep
    04:00,                   !- Time 1 {hh:mm}
    15.6,                    !- Value Until Time 1
    05:00,                   !- Time 2 {hh:mm}
    17.8,                    !- Value Until Time 2
    06:00,                   !- Time 3 {hh:mm}
    20,                      !- Value Until Time 3
    17:00,                   !- Time 4 {hh:mm}
    21,                      !- Value Until Time 4
    24:00,                   !- Time 5 {hh:mm}
    15.6;                    !- Value Until Time 5

Schedule:Day:Interval,
    OfficeLarge HTGSETP_SCH_YES_OPTIMUM Summer Design Day,  !- Name
    Temperature,             !- Schedule Type Limits Name
    No,                      !- Interpolate to Timestep
    24:00,                   !- Time 1 {hh:mm}
    15.6;                    !- Value Until Time 1

Schedule:Day:Interval,
    OfficeLarge HTGSETP_SCH_YES_OPTIMUM Winter Design Day,  !- Name
    Temperature,             !- Schedule Type Limits Name
    No,                      !- Interpolate to Timestep
    05:00,                   !- Time 1 {hh:mm}
    15.6,                    !- Value Until Time 1
    06:00,                   !- Time 2 {hh:mm}
    17.6,                    !- Value Until Time 2
    07:00,                   !- Time 3 {hh:mm}
    19.6,                    !- Value Until Time 3
    22:00,                   !- Time 4 {hh:mm}
    21,                      !- Value Until Time 4
    24:00,                   !- Time 5 {hh:mm}
    15.6;                    !- Value Until Time 5

Schedule:Day:Interval,
    OfficeLarge CLGSETP_SCH_NO_SETBACK Default,  !- Name
    Temperature,             !- Schedule Type Limits Name
    No,                      !- Interpolate to Timestep
    24:00,                   !- Time 1 {hh:mm}
    24;                      !- Value Until Time 1

Schedule:Day:Interval,
    OfficeLarge CLGSETP_SCH_NO_SETBACK Default|WntrDsn|Sat|Wkdy Day,  !- Name
    Temperature,             !- Schedule Type Limits Name
    No,                      !- Interpolate to Timestep
    24:00,                   !- Time 1 {hh:mm}
    24;                      !- Value Until Time 1

Schedule:Day:Interval,
    OfficeLarge CLGSETP_SCH_NO_SETBACK Summer Design Day,  !- Name
    Temperature,             !- Schedule Type Limits Name
    No,                      !- Interpolate to Timestep
    05:00,                   !- Time 1 {hh:mm}
    26.7,                    !- Value Until Time 1
    06:00,                   !- Time 2 {hh:mm}
    25.7,                    !- Value Until Time 2
    07:00,                   !- Time 3 {hh:mm}
    25,                      !- Value Until Time 3
    22:00,                   !- Time 4 {hh:mm}
    24,                      !- Value Until Time 4
    24:00,                   !- Time 5 {hh:mm}
    26.7;                    !- Value Until Time 5

Schedule:Day:Interval,
    OfficeLarge CLGSETP_SCH_NO_SETBACK Winter Design Day,  !- Name
    Temperature,             !- Schedule Type Limits Name
    No,                      !- Interpolate to Timestep
    24:00,                   !- Time 1 {hh:mm}
    24;                      !- Value Until Time 1

Schedule:Day:Interval,
    OfficeLarge HTGSETP_DC_SCH Default,  !- Name
    Temperature,             !- Schedule Type Limits Name
    No,                      !- Interpolate to Timestep
    24:00,                   !- Time 1 {hh:mm}
    18;                      !- Value Until Time 1

Schedule:Day:Interval,
    OfficeLarge HTGSETP_DC_SCH Summer Design Day,  !- Name
    Temperature,             !- Schedule Type Limits Name
    No,                      !- Interpolate to Timestep
    24:00,                   !- Time 1 {hh:mm}
    18;                      !- Value Until Time 1

Schedule:Day:Interval,
    OfficeLarge HTGSETP_DC_SCH Winter Design Day,  !- Name
    Temperature,             !- Schedule Type Limits Name
    No,                      !- Interpolate to Timestep
    24:00,                   !- Time 1 {hh:mm}
    18;                      !- Value Until Time 1

Schedule:Day:Interval,
    OfficeLarge CLGSETP_DC_SCH Default,  !- Name
    Temperature,             !- Schedule Type Limits Name
    No,                      !- Interpolate to Timestep
    24:00,                   !- Time 1 {hh:mm}
    27;                      !- Value Until Time 1

Schedule:Day:Interval,
    OfficeLarge CLGSETP_DC_SCH Summer Design Day,  !- Name
    Temperature,             !- Schedule Type Limits Name
    No,                      !- Interpolate to Timestep
    24:00,                   !- Time 1 {hh:mm}
    27;                      !- Value Until Time 1

Schedule:Day:Interval,
    OfficeLarge CLGSETP_DC_SCH Winter Design Day,  !- Name
    Temperature,             !- Schedule Type Limits Name
    No,                      !- Interpolate to Timestep
    24:00,                   !- Time 1 {hh:mm}
    27;                      !- Value Until Time 1

Schedule:Day:Interval,
    Air Velocity Schedule Default,  !- Name
    Velocity,                !- Schedule Type Limits Name
    No,                      !- Interpolate to Timestep
    24:00,                   !- Time 1 {hh:mm}
    0.2;                     !- Value Until Time 1

Schedule:Day:Interval,
    Chilled Water Loop Temp - 44F Default,  !- Name
    Temperature,             !- Schedule Type Limits Name
    No,                      !- Interpolate to Timestep
    24:00,                   !- Time 1 {hh:mm}
    6.66666666666669;        !- Value Until Time 1

Schedule:Day:Interval,
    Clothing Schedule Default Winter Clothes,  !- Name
    Any Number,              !- Schedule Type Limits Name
    No,                      !- Interpolate to Timestep
    24:00,                   !- Time 1 {hh:mm}
    1;                       !- Value Until Time 1

Schedule:Day:Interval,
    Clothing Schedule Summer Clothes,  !- Name
    Any Number,              !- Schedule Type Limits Name
    No,                      !- Interpolate to Timestep
    24:00,                   !- Time 1 {hh:mm}
    0.5;                     !- Value Until Time 1

Schedule:Day:Interval,
    DataCenter_EQUIP_SCH Summer Design Day,  !- Name
    Fractional,              !- Schedule Type Limits Name
    No,                      !- Interpolate to Timestep
    24:00,                   !- Time 1 {hh:mm}
    1;                       !- Value Until Time 1

Schedule:Day:Interval,
    DataCenter_EQUIP_SCH Winter Design Day 11,  !- Name
    Fractional,              !- Schedule Type Limits Name
    No,                      !- Interpolate to Timestep
    24:00,                   !- Time 1 {hh:mm}
    0.25;                    !- Value Until Time 1

Schedule:Day:Interval,
    DataCenter_EQUIP_SCH Wknd|Wkdy|Hol Day,  !- Name
    Fractional,              !- Schedule Type Limits Name
    No,                      !- Interpolate to Timestep
    24:00,                   !- Time 1 {hh:mm}
    0.25;                    !- Value Until Time 1

Schedule:Day:Interval,
    DataCenter_EQUIP_SCH Wknd|Wkdy|Hol Day 1,  !- Name
    Fractional,              !- Schedule Type Limits Name
    No,                      !- Interpolate to Timestep
    24:00,                   !- Time 1 {hh:mm}
    0.5;                     !- Value Until Time 1

Schedule:Day:Interval,
    DataCenter_EQUIP_SCH Wknd|Wkdy|Hol Day 10,  !- Name
    Fractional,              !- Schedule Type Limits Name
    No,                      !- Interpolate to Timestep
    24:00,                   !- Time 1 {hh:mm}
    0.75;                    !- Value Until Time 1

Schedule:Day:Interval,
    DataCenter_EQUIP_SCH Wknd|Wkdy|Hol Day 11,  !- Name
    Fractional,              !- Schedule Type Limits Name
    No,                      !- Interpolate to Timestep
    24:00,                   !- Time 1 {hh:mm}
    1;                       !- Value Until Time 1

Schedule:Day:Interval,
    DataCenter_EQUIP_SCH Wknd|Wkdy|Hol Day 2,  !- Name
    Fractional,              !- Schedule Type Limits Name
    No,                      !- Interpolate to Timestep
    24:00,                   !- Time 1 {hh:mm}
    0.75;                    !- Value Until Time 1

Schedule:Day:Interval,
    DataCenter_EQUIP_SCH Wknd|Wkdy|Hol Day 3,  !- Name
    Fractional,              !- Schedule Type Limits Name
    No,                      !- Interpolate to Timestep
    24:00,                   !- Time 1 {hh:mm}
    1;                       !- Value Until Time 1

Schedule:Day:Interval,
    DataCenter_EQUIP_SCH Wknd|Wkdy|Hol Day 4,  !- Name
    Fractional,              !- Schedule Type Limits Name
    No,                      !- Interpolate to Timestep
    24:00,                   !- Time 1 {hh:mm}
    0.25;                    !- Value Until Time 1

Schedule:Day:Interval,
    DataCenter_EQUIP_SCH Wknd|Wkdy|Hol Day 5,  !- Name
    Fractional,              !- Schedule Type Limits Name
    No,                      !- Interpolate to Timestep
    24:00,                   !- Time 1 {hh:mm}
    0.5;                     !- Value Until Time 1

Schedule:Day:Interval,
    DataCenter_EQUIP_SCH Wknd|Wkdy|Hol Day 6,  !- Name
    Fractional,              !- Schedule Type Limits Name
    No,                      !- Interpolate to Timestep
    24:00,                   !- Time 1 {hh:mm}
    0.75;                    !- Value Until Time 1

Schedule:Day:Interval,
    DataCenter_EQUIP_SCH Wknd|Wkdy|Hol Day 7,  !- Name
    Fractional,              !- Schedule Type Limits Name
    No,                      !- Interpolate to Timestep
    24:00,                   !- Time 1 {hh:mm}
    1;                       !- Value Until Time 1

Schedule:Day:Interval,
    DataCenter_EQUIP_SCH Wknd|Wkdy|Hol Day 8,  !- Name
    Fractional,              !- Schedule Type Limits Name
    No,                      !- Interpolate to Timestep
    24:00,                   !- Time 1 {hh:mm}
    0.25;                    !- Value Until Time 1

Schedule:Day:Interval,
    DataCenter_EQUIP_SCH Wknd|Wkdy|Hol Day 9,  !- Name
    Fractional,              !- Schedule Type Limits Name
    No,                      !- Interpolate to Timestep
    24:00,                   !- Time 1 {hh:mm}
    0.5;                     !- Value Until Time 1

Schedule:Day:Interval,
    Economizer Max OA Fraction 70 pct Default,  !- Name
    ,                        !- Schedule Type Limits Name
    No,                      !- Interpolate to Timestep
    24:00,                   !- Time 1 {hh:mm}
    0.7;                     !- Value Until Time 1

Schedule:Day:Interval,
    Fraction Latent - 0.05 Default,  !- Name
    Fractional,              !- Schedule Type Limits Name
    No,                      !- Interpolate to Timestep
    24:00,                   !- Time 1 {hh:mm}
    0.05;                    !- Value Until Time 1

Schedule:Day:Interval,
    Fraction Sensible - 0.2 Default,  !- Name
    Fractional,              !- Schedule Type Limits Name
    No,                      !- Interpolate to Timestep
    24:00,                   !- Time 1 {hh:mm}
    0.2;                     !- Value Until Time 1

Schedule:Day:Interval,
    Heat Pump Loop High Temp - 87F Default,  !- Name
    Temperature,             !- Schedule Type Limits Name
    No,                      !- Interpolate to Timestep
    24:00,                   !- Time 1 {hh:mm}
    30.5555555555556;        !- Value Until Time 1

Schedule:Day:Interval,
    Heat Pump Loop Low Temp - 67F Default,  !- Name
    Temperature,             !- Schedule Type Limits Name
    No,                      !- Interpolate to Timestep
    24:00,                   !- Time 1 {hh:mm}
    19.4444444444445;        !- Value Until Time 1

Schedule:Day:Interval,
    Hot Water Loop Temp - 180F Default,  !- Name
    Temperature,             !- Schedule Type Limits Name
    No,                      !- Interpolate to Timestep
    24:00,                   !- Time 1 {hh:mm}
    82.2222222222223;        !- Value Until Time 1

Schedule:Day:Interval,
    Large Office BLDG ELEVATORS Default,  !- Name
    Fractional,              !- Schedule Type Limits Name
    No,                      !- Interpolate to Timestep
    04:00,                   !- Time 1 {hh:mm}
    0.05,                    !- Value Until Time 1
    05:00,                   !- Time 2 {hh:mm}
    0.1,                     !- Value Until Time 2
    06:00,                   !- Time 3 {hh:mm}
    0.2,                     !- Value Until Time 3
    07:00,                   !- Time 4 {hh:mm}
    0.4,                     !- Value Until Time 4
    09:00,                   !- Time 5 {hh:mm}
    0.5,                     !- Value Until Time 5
    10:00,                   !- Time 6 {hh:mm}
    0.35,                    !- Value Until Time 6
    16:00,                   !- Time 7 {hh:mm}
    0.15,                    !- Value Until Time 7
    17:00,                   !- Time 8 {hh:mm}
    0.35,                    !- Value Until Time 8
    19:00,                   !- Time 9 {hh:mm}
    0.5,                     !- Value Until Time 9
    21:00,                   !- Time 10 {hh:mm}
    0.4,                     !- Value Until Time 10
    22:00,                   !- Time 11 {hh:mm}
    0.3,                     !- Value Until Time 11
    23:00,                   !- Time 12 {hh:mm}
    0.2,                     !- Value Until Time 12
    24:00,                   !- Time 13 {hh:mm}
    0.1;                     !- Value Until Time 13

Schedule:Day:Interval,
    Large Office BLDG ELEVATORS Summer Design Day,  !- Name
    Fractional,              !- Schedule Type Limits Name
    No,                      !- Interpolate to Timestep
    04:00,                   !- Time 1 {hh:mm}
    0.05,                    !- Value Until Time 1
    05:00,                   !- Time 2 {hh:mm}
    0.1,                     !- Value Until Time 2
    06:00,                   !- Time 3 {hh:mm}
    0.2,                     !- Value Until Time 3
    07:00,                   !- Time 4 {hh:mm}