
OS:Version,
  {e188b31f-37cd-45ab-8687-9aa9c4bc3762}, !- Handle
  3.5.0;                                  !- Version Identifier

OS:Site,
  {b24ac6df-26bd-4fc6-99da-cd715728cd2f}, !- Handle
  Denver-Aurora-Buckley AFB,              !- Name
  39.72,                                  !- Latitude {deg}
  -104.75,                                !- Longitude {deg}
  -7,                                     !- Time Zone {hr}
  1726,                                   !- Elevation {m}
  City;                                   !- Terrain

OS:SimulationControl,
  {236f4928-fb70-417f-abbd-f3e77419f0e8}, !- Handle
  Yes,                                    !- Do Zone Sizing Calculation
  Yes,                                    !- Do System Sizing Calculation
  Yes,                                    !- Do Plant Sizing Calculation
  No,                                     !- Run Simulation for Sizing Periods
  Yes,                                    !- Run Simulation for Weather File Run Periods
  0.04,                                   !- Loads Convergence Tolerance Value {W}
  0.2,                                    !- Temperature Convergence Tolerance Value {deltaC}
  FullInteriorAndExterior,                !- Solar Distribution
  25,                                     !- Maximum Number of Warmup Days
  7,                                      !- Minimum Number of Warmup Days
  No,                                     !- Do HVAC Sizing Simulation for Sizing Periods
  1;                                      !- Maximum Number of HVAC Sizing Simulation Passes

OS:Building,
  {e4a56557-3f4c-4321-bfaa-70a3d95100f0}, !- Handle
  OfficeMedium,                           !- Name
  ,                                       !- Building Sector Type
  0,                                      !- North Axis {deg}
  ,                                       !- Nominal Floor to Floor Height {m}
  ,                                       !- Space Type Name
  ,                                       !- Default Construction Set Name
  ;                                       !- Default Schedule Set Name

OS:ShadowCalculation,
  {5c99be53-4200-4771-8fd8-745c020997ef}, !- Handle
  PolygonClipping,                        !- Shading Calculation Method
  Periodic,                               !- Shading Calculation Update Frequency Method
  30,                                     !- Shading Calculation Update Frequency
  15000,                                  !- Maximum Figures in Shadow Overlap Calculations
  ,                                       !- Polygon Clipping Algorithm
  512,                                    !- Pixel Counting Resolution
  ,                                       !- Sky Diffuse Modeling Algorithm
  No,                                     !- Output External Shading Calculation Results
  No,                                     !- Disable Self-Shading Within Shading Zone Groups
  No;                                     !- Disable Self-Shading From Shading Zone Groups to Other Zones

OS:Output:Variable,
  {fbdb5ad6-2a18-4da5-a122-b52a156ae723}, !- Handle
  Output Variable 1,                      !- Name
  *,                                      !- Key Value
  Zone Total Internal Total Heating Rate, !- Variable Name
  hourly;                                 !- Reporting Frequency

OS:HeatBalanceAlgorithm,
  {d65889f8-0416-4e44-918f-feffe21169fa}, !- Handle
  ConductionTransferFunction,             !- Algorithm
  200;                                    !- Surface Temperature Upper Limit {C}

OS:Timestep,
  {b5f39e7b-73d8-482d-b8f4-15169fa60f39}, !- Handle
  6;                                      !- Number of Timesteps per Hour

OS:ConvergenceLimits,
  {aa8194ea-f665-46c0-80d5-29edb5d44e77}, !- Handle
  1,                                      !- Minimum System Timestep {minutes}
  20;                                     !- Maximum HVAC Iterations

OS:SizingPeriod:DesignDay,
  {8b9a6711-8f52-4534-945a-0e65597d851f}, !- Handle
  Denver-Aurora-Buckley.AFB_CO_USA Ann Clg .4% Condns DB=>MWB, !- Name
  33.9,                                   !- Maximum Dry-Bulb Temperature {C}
  14.8,                                   !- Daily Dry-Bulb Temperature Range {deltaC}
  82237,                                  !- Barometric Pressure {Pa}
  3.6,                                    !- Wind Speed {m/s}
  30,                                     !- Wind Direction {deg}
  ,                                       !- Sky Clearness
  No,                                     !- Rain Indicator
  No,                                     !- Snow Indicator
  21,                                     !- Day of Month
  7,                                      !- Month
  SummerDesignDay,                        !- Day Type
  No,                                     !- Daylight Saving Time Indicator
  WetBulb,                                !- Humidity Condition Type
  ,                                       !- Humidity Condition Day Schedule Name
  15,                                     !- Wetbulb or DewPoint at Maximum Dry-Bulb {C}
  ,                                       !- Humidity Ratio at Maximum Dry-Bulb {kgWater/kgDryAir}
  ,                                       !- Enthalpy at Maximum Dry-Bulb {J/kg}
  DefaultMultipliers,                     !- Dry-Bulb Temperature Range Modifier Type
  ,                                       !- Dry-Bulb Temperature Range Modifier Day Schedule Name
  ASHRAETau,                              !- Solar Model Indicator
  ,                                       !- Beam Solar Day Schedule Name
  ,                                       !- Diffuse Solar Day Schedule Name
  0.423,                                  !- ASHRAE Clear Sky Optical Depth for Beam Irradiance {dimensionless}
  2.02;                                   !- ASHRAE Clear Sky Optical Depth for Diffuse Irradiance {dimensionless}

OS:SizingPeriod:DesignDay,
  {04057fac-180c-4b8a-9805-74dfc4cbbc15}, !- Handle
  Denver-Aurora-Buckley.AFB_CO_USA Ann Htg 99.6% Condns DB, !- Name
  -17.9,                                  !- Maximum Dry-Bulb Temperature {C}
  0,                                      !- Daily Dry-Bulb Temperature Range {deltaC}
  82237,                                  !- Barometric Pressure {Pa}
  2.5,                                    !- Wind Speed {m/s}
  180,                                    !- Wind Direction {deg}
  0,                                      !- Sky Clearness
  No,                                     !- Rain Indicator
  No,                                     !- Snow Indicator
  21,                                     !- Day of Month
  12,                                     !- Month
  WinterDesignDay,                        !- Day Type
  No,                                     !- Daylight Saving Time Indicator
  WetBulb,                                !- Humidity Condition Type
  ,                                       !- Humidity Condition Day Schedule Name
  -17.9,                                  !- Wetbulb or DewPoint at Maximum Dry-Bulb {C}
  ,                                       !- Humidity Ratio at Maximum Dry-Bulb {kgWater/kgDryAir}
  ,                                       !- Enthalpy at Maximum Dry-Bulb {J/kg}
  DefaultMultipliers,                     !- Dry-Bulb Temperature Range Modifier Type
  ,                                       !- Dry-Bulb Temperature Range Modifier Day Schedule Name
  ASHRAEClearSky;                         !- Solar Model Indicator

OS:RunPeriod,
  {907ea372-1599-49fa-872a-e4d1e6179cf6}, !- Handle
  RunPeriod 1,                            !- Name
  1,                                      !- Begin Month
  1,                                      !- Begin Day of Month
  12,                                     !- End Month
  31,                                     !- End Day of Month
  No,                                     !- Use Weather File Holidays and Special Days
  No,                                     !- Use Weather File Daylight Saving Period
  No,                                     !- Apply Weekend Holiday Rule
  Yes,                                    !- Use Weather File Rain Indicators
  Yes,                                    !- Use Weather File Snow Indicators
  ;                                       !- Number of Times Runperiod to be Repeated

OS:YearDescription,
  {e80e1c46-de46-4535-86b9-ab3173209585}, !- Handle
  ,                                       !- Calendar Year
  Sunday;                                 !- Day of Week for Start Day

OS:ScheduleTypeLimits,
  {47f4a823-24da-445e-a389-9e5d879533d1}, !- Handle
  Schedule Type Limits 1;                 !- Name

OS:ScheduleTypeLimits,
  {694c3465-fd4a-45f4-980b-5173880b76cd}, !- Handle
  Fraction,                               !- Name
  0,                                      !- Lower Limit Value
  1,                                      !- Upper Limit Value
  Continuous;                             !- Numeric Type

OS:ScheduleTypeLimits,
  {03269b7c-9eaf-4455-9c45-ab4611537806}, !- Handle
  Temperature,                            !- Name
  -60,                                    !- Lower Limit Value
  200,                                    !- Upper Limit Value
  Continuous,                             !- Numeric Type
  Temperature;                            !- Unit Type

OS:ScheduleTypeLimits,
  {2c5146e1-6424-4687-b5fd-911dc9ef784b}, !- Handle
  On/Off,                                 !- Name
  0,                                      !- Lower Limit Value
  1,                                      !- Upper Limit Value
  Discrete,                               !- Numeric Type
  Availability;                           !- Unit Type

OS:ScheduleTypeLimits,
  {730ea571-d178-4314-878f-f3484577b089}, !- Handle
  Control Type,                           !- Name
  0,                                      !- Lower Limit Value
  4,                                      !- Upper Limit Value
  Discrete,                               !- Numeric Type
  ControlMode;                            !- Unit Type

OS:ScheduleTypeLimits,
  {51783e7a-1596-40f3-b060-34f5a59f7ef1}, !- Handle
  Humidity,                               !- Name
  10,                                     !- Lower Limit Value
  90,                                     !- Upper Limit Value
  Continuous;                             !- Numeric Type

OS:ScheduleTypeLimits,
  {1790b1ae-3aed-4ded-83af-bfeb88a89ebe}, !- Handle
  Schedule Type Limits 2;                 !- Name

OS:Schedule:Compact,
  {67cd970a-4930-4cdf-8285-eab19eaa991e}, !- Handle
  INFIL_SCH_Baseline,                     !- Name
  {694c3465-fd4a-45f4-980b-5173880b76cd}, !- Schedule Type Limits Name
  Through: 31-Dec,                        !- Field 1
  For: Saturday,                          !- Field 2
  Until: 6:00,                            !- Field 3
  1,                                      !- Field 4
  Until: 18:00,                           !- Field 5
  1,                                      !- Field 6
  Until: 24:00,                           !- Field 7
  1,                                      !- Field 8
  For: SummerDesignDay,                   !- Field 9
  Until: 24:00,                           !- Field 10
  1,                                      !- Field 11
  For: Sunday,                            !- Field 12
  Until: 24:00,                           !- Field 13
  1,                                      !- Field 14
  For: Weekdays,                          !- Field 15
  Until: 6:00,                            !- Field 16
  1,                                      !- Field 17
  Until: 22:00,                           !- Field 18
  1,                                      !- Field 19
  Until: 24:00,                           !- Field 20
  1,                                      !- Field 21
  For: WinterDesignDay,                   !- Field 22
  Until: 24:00,                           !- Field 23
  1;                                      !- Field 24

OS:Schedule:Compact,
  {6628214a-df8f-44b0-9f6a-c17917c209d1}, !- Handle
  ALWAYS_ON,                              !- Name
  {694c3465-fd4a-45f4-980b-5173880b76cd}, !- Schedule Type Limits Name
  Through: 12/31,                         !- Field 1
  For: AllDays,                           !- Field 2
  Until: 24:00,                           !- Field 3
  1.0;                                    !- Field 4

OS:Schedule:Compact,
  {637954cb-3eb2-4de0-b0a8-f62f1d447dc9}, !- Handle
  ALWAYS_OFF,                             !- Name
  {694c3465-fd4a-45f4-980b-5173880b76cd}, !- Schedule Type Limits Name
  Through: 12/31,                         !- Field 1
  For: AllDays,                           !- Field 2
  Until: 24:00,                           !- Field 3
  0.0;                                    !- Field 4

OS:Schedule:Compact,
  {b2402ef9-5b43-4cb5-9552-7a36303c4549}, !- Handle
  HVACOperationSchd,                      !- Name
  {2c5146e1-6424-4687-b5fd-911dc9ef784b}, !- Schedule Type Limits Name
  Through: 31-Dec,                        !- Field 1
  For: Saturday,                          !- Field 2
  Until: 6:00,                            !- Field 3
  0,                                      !- Field 4
  Until: 18:00,                           !- Field 5
  1,                                      !- Field 6
  Until: 24:00,                           !- Field 7
  0,                                      !- Field 8
  For: SummerDesignDay,                   !- Field 9
  Until: 6:00,                            !- Field 10
  0,                                      !- Field 11
  Until: 22:00,                           !- Field 12
  1,                                      !- Field 13
  Until: 24:00,                           !- Field 14
  0,                                      !- Field 15
  For: Sunday,                            !- Field 16
  Until: 24:00,                           !- Field 17
  0,                                      !- Field 18
  For: Weekdays,                          !- Field 19
  Until: 6:00,                            !- Field 20
  0,                                      !- Field 21
  Until: 22:00,                           !- Field 22
  1,                                      !- Field 23
  Until: 24:00,                           !- Field 24
  0,                                      !- Field 25
  For: WinterDesignDay,                   !- Field 26
  Until: 6:00,                            !- Field 27
  0,                                      !- Field 28
  Until: 18:00,                           !- Field 29
  1,                                      !- Field 30
  Until: 24:00,                           !- Field 31
  0;                                      !- Field 32

OS:Schedule:Compact,
  {d67946aa-62ac-4fd1-95e4-3212e7076628}, !- Handle
  ltg_sch_office,                         !- Name
  {694c3465-fd4a-45f4-980b-5173880b76cd}, !- Schedule Type Limits Name
  Through: 12/31,                         !- Field 1
  For: SummerDesignDay,                   !- Field 2
  Until: 24:00,                           !- Field 3
  1,                                      !- Field 4
  For: WinterDesignDay,                   !- Field 5
  Until: 24:00,                           !- Field 6
  0,                                      !- Field 7
  For: Weekdays,                          !- Field 8
  Until: 5:00,                            !- Field 9
  0.05,                                   !- Field 10
  Until: 7:00,                            !- Field 11
  0.1,                                    !- Field 12
  Until: 8:00,                            !- Field 13
  0.3,                                    !- Field 14
  Until: 17:00,                           !- Field 15
  0.9,                                    !- Field 16
  Until: 18:00,                           !- Field 17
  0.5,                                    !- Field 18
  Until: 20:00,                           !- Field 19
  0.3,                                    !- Field 20
  Until: 22:00,                           !- Field 21
  0.2,                                    !- Field 22
  Until: 23:00,                           !- Field 23
  0.1,                                    !- Field 24
  Until: 24:00,                           !- Field 25
  0.05,                                   !- Field 26
  For: Saturday,                          !- Field 27
  Until: 6:00,                            !- Field 28
  0.05,                                   !- Field 29
  Until: 8:00,                            !- Field 30
  0.1,                                    !- Field 31
  Until: 12:00,                           !- Field 32
  0.3,                                    !- Field 33
  Until: 17:00,                           !- Field 34
  0.15,                                   !- Field 35
  Until: 24:00,                           !- Field 36
  0.05,                                   !- Field 37
  For: Sunday,                            !- Field 38
  Until: 24:00,                           !- Field 39
  0.05;                                   !- Field 40

OS:Schedule:Compact,
  {50948286-fa7c-4cad-a000-79b3613c7686}, !- Handle
  BLDG_EQUIP_SCH,                         !- Name
  {694c3465-fd4a-45f4-980b-5173880b76cd}, !- Schedule Type Limits Name
  Through: 31-Dec,                        !- Field 1
  For: Saturday,                          !- Field 2
  Until: 6:00,                            !- Field 3
  0.231,                                  !- Field 4
  Until: 8:00,                            !- Field 5
  0.381,                                  !- Field 6
  Until: 12:00,                           !- Field 7
  4.770000e-01,                           !- Field 8
  Until: 17:00,                           !- Field 9
  3.340000e-01,                           !- Field 10
  Until: 19:00,                           !- Field 11
  2.860000e-01,                           !- Field 12
  Until: 24:00,                           !- Field 13
  0.231,                                  !- Field 14
  For: SummerDesignDay,                   !- Field 15
  Until: 24:00,                           !- Field 16
  0.858,                                  !- Field 17
  For: Sunday,                            !- Field 18
  Until: 6:00,                            !- Field 19
  0.231,                                  !- Field 20
  Until: 18:00,                           !- Field 21
  2.860000e-01,                           !- Field 22
  Until: 24:00,                           !- Field 23
  0.231,                                  !- Field 24
  For: Weekdays,                          !- Field 25
  Until: 6:00,                            !- Field 26
  0.308,                                  !- Field 27
  Until: 8:00,                            !- Field 28
  0.381,                                  !- Field 29
  Until: 12:00,                           !- Field 30
  0.858,                                  !- Field 31
  Until: 13:00,                           !- Field 32
  0.762,                                  !- Field 33
  Until: 17:00,                           !- Field 34
  0.858,                                  !- Field 35
  Until: 18:00,                           !- Field 36
  4.770000e-01,                           !- Field 37
  Until: 24:00,                           !- Field 38
  0.381,                                  !- Field 39
  For: WinterDesignDay,                   !- Field 40
  Until: 24:00,                           !- Field 41
  0.231;                                  !- Field 42

OS:Schedule:Compact,
  {807fab37-99c1-4366-a35c-feb8ddb3f53c}, !- Handle
  BLDG_OCC_SCH,                           !- Name
  {694c3465-fd4a-45f4-980b-5173880b76cd}, !- Schedule Type Limits Name
  Through: 31-Dec,                        !- Field 1
  For: Saturday,                          !- Field 2
  Until: 6:00,                            !- Field 3
  0,                                      !- Field 4
  Until: 8:00,                            !- Field 5
  0.1,                                    !- Field 6
  Until: 12:00,                           !- Field 7
  0.3,                                    !- Field 8
  Until: 17:00,                           !- Field 9
  0.1,                                    !- Field 10
  Until: 19:00,                           !- Field 11
  0.05,                                   !- Field 12
  Until: 24:00,                           !- Field 13
  0,                                      !- Field 14
  For: SummerDesignDay,                   !- Field 15
  Until: 24:00,                           !- Field 16
  0.95,                                   !- Field 17
  For: Sunday,                            !- Field 18
  Until: 6:00,                            !- Field 19
  0,                                      !- Field 20
  Until: 18:00,                           !- Field 21
  0.05,                                   !- Field 22
  Until: 24:00,                           !- Field 23
  0,                                      !- Field 24
  For: Weekdays,                          !- Field 25
  Until: 6:00,                            !- Field 26
  0,                                      !- Field 27
  Until: 7:00,                            !- Field 28
  0.1,                                    !- Field 29
  Until: 8:00,                            !- Field 30
  0.2,                                    !- Field 31
  Until: 12:00,                           !- Field 32
  0.95,                                   !- Field 33
  Until: 13:00,                           !- Field 34
  0.5,                                    !- Field 35
  Until: 17:00,                           !- Field 36
  0.95,                                   !- Field 37
  Until: 18:00,                           !- Field 38
  0.3,                                    !- Field 39
  Until: 22:00,                           !- Field 40
  0.1,                                    !- Field 41
  Until: 24:00,                           !- Field 42
  0.05,                                   !- Field 43
  For: WinterDesignDay,                   !- Field 44
  Until: 24:00,                           !- Field 45
  0;                                      !- Field 46

OS:Schedule:Compact,
  {2d55a6d4-1d57-49b7-ae39-97180d80ca23}, !- Handle
  BLDG_ELEVATORS,                         !- Name
  {694c3465-fd4a-45f4-980b-5173880b76cd}, !- Schedule Type Limits Name
  Through: 31-Dec,                        !- Field 1
  For: Saturday,                          !- Field 2
  Until: 7:00,                            !- Field 3
  0,                                      !- Field 4
  Until: 8:00,                            !- Field 5
  0.16,                                   !- Field 6
  Until: 9:00,                            !- Field 7
  0.14,                                   !- Field 8
  Until: 10:00,                           !- Field 9
  0.21,                                   !- Field 10
  Until: 11:00,                           !- Field 11
  0.18,                                   !- Field 12
  Until: 12:00,                           !- Field 13
  0.25,                                   !- Field 14
  Until: 13:00,                           !- Field 15
  0.21,                                   !- Field 16
  Until: 14:00,                           !- Field 17
  0.13,                                   !- Field 18
  Until: 15:00,                           !- Field 19
  0.08,                                   !- Field 20
  Until: 16:00,                           !- Field 21
  0.04,                                   !- Field 22
  Until: 17:00,                           !- Field 23
  0.05,                                   !- Field 24
  Until: 18:00,                           !- Field 25
  0.06,                                   !- Field 26
  Until: 24:00,                           !- Field 27
  0,                                      !- Field 28
  For: SummerDesignDay,                   !- Field 29
  Until: 24:00,                           !- Field 30
  0.69,                                   !- Field 31
  For: Sunday,                            !- Field 32
  Until: 24:00,                           !- Field 33
  0,                                      !- Field 34
  For: Weekdays,                          !- Field 35
  Until: 7:00,                            !- Field 36
  0,                                      !- Field 37
  Until: 8:00,                            !- Field 38
  0.35,                                   !- Field 39
  Until: 9:00,                            !- Field 40
  0.69,                                   !- Field 41
  Until: 10:00,                           !- Field 42
  0.43,                                   !- Field 43
  Until: 11:00,                           !- Field 44
  0.37,                                   !- Field 45
  Until: 12:00,                           !- Field 46
  0.43,                                   !- Field 47
  Until: 13:00,                           !- Field 48
  0.58,                                   !- Field 49
  Until: 14:00,                           !- Field 50
  0.48,                                   !- Field 51
  Until: 16:00,                           !- Field 52
  0.37,                                   !- Field 53
  Until: 17:00,                           !- Field 54
  0.46,                                   !- Field 55
  Until: 18:00,                           !- Field 56
  0.62,                                   !- Field 57
  Until: 19:00,                           !- Field 58
  0.12,                                   !- Field 59
  Until: 21:00,                           !- Field 60
  0.04,                                   !- Field 61
  Until: 24:00,                           !- Field 62
  0,                                      !- Field 63
  For: WinterDesignDay,                   !- Field 64
  Until: 24:00,                           !- Field 65
  0;                                      !- Field 66

OS:Schedule:Compact,
  {cb84c55b-ef12-4ba9-b283-340e494ca3d7}, !- Handle
  BLDG_SWH_SCH,                           !- Name
  {694c3465-fd4a-45f4-980b-5173880b76cd}, !- Schedule Type Limits Name
  Through: 31-Dec,                        !- Field 1
  For: Saturday,                          !- Field 2
  Until: 6:00,                            !- Field 3
  0,                                      !- Field 4
  Until: 7:00,                            !- Field 5
  0.07,                                   !- Field 6
  Until: 8:00,                            !- Field 7
  0.11,                                   !- Field 8
  Until: 9:00,                            !- Field 9
  0.15,                                   !- Field 10
  Until: 10:00,                           !- Field 11
  0.21,                                   !- Field 12
  Until: 11:00,                           !- Field 13
  0.19,                                   !- Field 14
  Until: 12:00,                           !- Field 15
  0.23,                                   !- Field 16
  Until: 13:00,                           !- Field 17
  0.2,                                    !- Field 18
  Until: 14:00,                           !- Field 19
  0.19,                                   !- Field 20
  Until: 15:00,                           !- Field 21
  0.15,                                   !- Field 22
  Until: 16:00,                           !- Field 23
  0.13,                                   !- Field 24
  Until: 17:00,                           !- Field 25
  0.14,                                   !- Field 26
  Until: 19:00,                           !- Field 27
  0.07,                                   !- Field 28
  Until: 24:00,                           !- Field 29
  0,                                      !- Field 30
  For: SummerDesignDay,                   !- Field 31
  Until: 6:00,                            !- Field 32
  0,                                      !- Field 33
  Until: 7:00,                            !- Field 34
  0.07,                                   !- Field 35
  Until: 8:00,                            !- Field 36
  0.19,                                   !- Field 37
  Until: 9:00,                            !- Field 38
  0.35,                                   !- Field 39
  Until: 10:00,                           !- Field 40
  0.38,                                   !- Field 41
  Until: 11:00,                           !- Field 42
  0.39,                                   !- Field 43
  Until: 12:00,                           !- Field 44
  0.47,                                   !- Field 45
  Until: 13:00,                           !- Field 46
  0.57,                                   !- Field 47
  Until: 14:00,                           !- Field 48
  0.54,                                   !- Field 49
  Until: 15:00,                           !- Field 50
  0.34,                                   !- Field 51
  Until: 16:00,                           !- Field 52
  0.33,                                   !- Field 53
  Until: 17:00,                           !- Field 54
  0.44,                                   !- Field 55
  Until: 18:00,                           !- Field 56
  0.26,                                   !- Field 57
  Until: 19:00,                           !- Field 58
  0.21,                                   !- Field 59
  Until: 20:00,                           !- Field 60
  0.15,                                   !- Field 61
  Until: 21:00,                           !- Field 62
  0.17,                                   !- Field 63
  Until: 22:00,                           !- Field 64
  0.08,                                   !- Field 65
  Until: 24:00,                           !- Field 66
  0.05,                                   !- Field 67
  For: Sunday,                            !- Field 68
  Until: 6:00,                            !- Field 69
  0,                                      !- Field 70
  Until: 11:00,                           !- Field 71
  0.04,                                   !- Field 72